version 2
run Sched1-0-20240323-23:08:50-25644
attr configname Sched1
attr datetime 20240323-23:08:50
attr experiment Sched1
attr inifile omnetpp.ini
attr iterationvars ""
attr iterationvarsf ""
attr measurement ""
attr network Network
attr processid 25644
attr repetition 0
attr replication #0
attr resultdir results
attr runnumber 0
attr seedset 0
param *.nrHP 2
param *.nrMP 2
param *.nrLP 2
param Network.sources[*].sendIaTime "20.2 ms"

vector 0 Network.sink HP ETV
vector 1 Network.sink lifetime:vector ETV
attr interpolationmode none
attr title "lifetime of arrived jobs, vector"
attr unit s
vector 2 Network.sink MP ETV
vector 3 Network.sink LP ETV
vector 4 Network.flc "delay vector" ETV
vector 5 Network.flc "result nescalat" ETV
vector 6 Network.flc "res scalat" ETV
vector 7 Network.flc "weight vector" ETV
0	16	1	1
0	25	4	4
0	46	17	0.923335007771
0	54	19	0.849080152624
0	81	32	0.021871980136
0	103	42	0.222283072959
0	146	57	0.894006257729
0	200	87	0.307089747825
0	215	90	0.115340011165
0	223	92	0.273887283454
0	232	94	1.861290397793
1	16	1	1
1	19	2	2
1	22	3	3
1	25	4	4
1	28	5	5
1	31	6	6
1	46	17	0.923335007771
1	54	19	0.849080152624
1	57	20	1.35089274429
1	67	26	0.630198687443
1	75	30	0.21971331355
1	81	32	0.021871980136
1	91	38	0.435994916092
1	97	40	0.578784215134
1	103	42	0.222283072959
1	111	46	0.894668874297
1	118	47	0.715298558617
1	121	48	1.444969604556
1	127	50	0.810507139056
1	132	51	0.24889544014
1	138	53	0.014175559552
1	146	57	0.894006257729
1	152	59	0.041744619097
1	161	64	0.130079205473
1	176	75	0.837727530178
1	183	78	0.921651347607
1	194	85	0.322473983567
1	200	87	0.307089747825
1	205	88	0.844436765486
1	210	89	0.355992585091
1	215	90	0.115340011165
1	223	92	0.273887283454
1	229	93	1.881183901593
1	232	94	1.861290397793
1	239	97	0.04211706099
2	19	2	2
2	28	5	5
2	67	26	0.630198687443
2	91	38	0.435994916092
2	111	46	0.894668874297
2	118	47	0.715298558617
2	127	50	0.810507139056
2	152	59	0.041744619097
2	176	75	0.837727530178
2	229	93	1.881183901593
3	22	3	3
3	31	6	6
3	57	20	1.35089274429
3	75	30	0.21971331355
3	97	40	0.578784215134
3	121	48	1.444969604556
3	132	51	0.24889544014
3	138	53	0.014175559552
3	161	64	0.130079205473
3	183	78	0.921651347607
3	194	85	0.322473983567
3	205	88	0.844436765486
3	210	89	0.355992585091
3	239	97	0.04211706099
4	224	92	10
5	224	92	16
6	224	92	-7
7	224	92	1
0	248	102	0.584478025238
0	286	124	0.778030609471
0	351	165	0.552007848054
0	356	166	0.951045465984
0	386	180	0.70572654002
0	414	196	0.317018791382
0	426	200	0.072802678166
0	458	212	0.746158690342
0	476	218	0.539095576861
0	505	230	1.361236140273
0	518	233	1.42661998897
0	521	234	2.043454891108
0	544	245	0.566233847458
0	561	250	0.487106819547
0	567	252	0.62355992198
0	662	299	0.579509762853
0	683	308	0.353223389738
0	696	313	0.581847926867
0	703	316	0.793668420612
0	721	321	1.191060306804
0	741	329	0.058598690267
0	746	330	0.267098930723
0	770	342	0.605147852431
0	780	344	0.735006086834
0	825	365	0.366912537119
0	859	383	0.754212293879
0	893	397	1.749836061508
0	908	404	0.417311217074
0	914	406	0.107625682948
0	935	414	0.400197646789
0	944	419	0.978809597342
0	959	426	0.842252834654
0	1005	448	0.899611340913
0	1047	470	0.279361152683
0	1060	479	0.637573781931
0	1072	483	0.506161905488
0	1077	484	0.348157991728
0	1090	493	0.2433851966
0	1104	503	0.59289235432
0	1111	505	0.124458086451
0	1126	508	2.716617497898
0	1144	518	0.942474042785
0	1150	520	0.355727383499
0	1167	529	0.35825425272
0	1172	530	0.439137856843
0	1179	533	0.886087401052
0	1205	543	1.114199308575
0	1230	556	0.315242164769
0	1274	580	0.495613718052
0	1304	593	0.535181290254
0	1314	595	1.128405386265
0	1319	596	0.375641643005
0	1411	644	0.221030229488
0	1438	651	1.860671883742
0	1441	652	2.009172209488
0	1444	653	2.598860541816
0	1450	655	0.957765051723
0	1481	666	0.603764407754
0	1522	683	0.573487158356
0	1538	690	0.289795388979
0	1554	694	0.101823258055
0	1589	713	0.99068766818
0	1598	718	0.891803811779
0	1608	720	1.787102321233
0	1687	763	1.017364462602
0	1722	782	2.13101285217
0	1753	797	1.062735930774
0	1768	804	1.400316111927
0	1828	840	0.939160841113
0	1909	872	1.440032960294
0	1958	893	0.63776494745
0	1996	903	0.804700016417
0	2038	921	0.751372634646
0	2077	936	1.067323327452
0	2099	942	0.423210539719
0	2106	945	0.812231071496
0	2120	951	0.720599624385
0	2139	966	0.16504706155
0	2186	989	2.479934463767
0	2197	991	0.581253255733
1	248	102	0.584478025238
1	263	113	0.78001123377
1	268	114	0.754070504066
1	275	117	0.699207260033
1	286	124	0.778030609471
1	300	134	0.934866259529
1	308	138	0.837741449418
1	317	143	0.363169209295
1	329	151	0.87521616132
1	340	158	0.484859249607
1	351	165	0.552007848054
1	356	166	0.951045465984
1	365	171	0.982484165147
1	374	176	0.937330156652
1	380	178	0.394667086003
1	386	180	0.70572654002
1	393	183	0.27237424849
1	407	193	0.0365175426
1	414	196	0.317018791382
1	419	197	0.910977996499
1	426	200	0.072802678166
1	431	201	0.651486108639
1	438	204	0.635067501086
1	444	206	0.373755056307
1	453	211	0.261384502864
1	458	212	0.746158690342
1	466	216	0.74737481517
1	471	217	0.555327507704
1	476	218	0.539095576861
1	483	220	0.582068518154
1	491	224	0.299151521835
1	502	229	0.369372008957
1	505	230	1.361236140273
1	515	232	0.278603569856
1	518	233	1.42661998897
1	521	234	2.043454891108
1	531	240	0.364833194186
1	538	243	0.089676107378
1	544	245	0.566233847458
1	549	246	0.394610955591
1	554	247	0.49258002752
1	561	250	0.487106819547
1	567	252	0.62355992198
1	574	255	0.44368434116
1	580	257	0.623727631499
1	590	263	0.960343228444
1	596	265	0.011741812753
1	604	269	0.549256879767
1	611	272	0.96086962841
1	621	278	0.311877456219
1	628	281	0.943702263594
1	634	283	0.831565502935
1	639	284	0.576836635514
1	644	285	0.831951226119
1	662	299	0.579509762853
1	669	302	0.150499907186
1	678	307	0.63391938159
1	683	308	0.353223389738
1	690	311	0.847912848029
1	696	313	0.581847926867
1	703	316	0.793668420612
1	711	319	0.968578182184
1	718	320	0.891151469893
1	721	321	1.191060306804
1	729	325	0.716431504304
1	734	326	0.313546503674
1	741	329	0.058598690267
1	746	330	0.267098930723
1	753	333	0.775557846761
1	763	339	0.982707962511
1	770	342	0.605147852431
1	775	343	0.256105074415
1	780	344	0.735006086834
1	785	345	0.081875889662
1	794	350	0.348985210396
1	801	353	0.456963542397
1	807	355	0.872520209531
1	813	357	0.9035099248
1	825	365	0.366912537119
1	835	371	0.986996452909
1	844	376	0.086969680911
1	850	378	0.516907079899
1	859	383	0.754212293879
1	867	387	0.278663203829
1	875	391	0.832487143878
1	881	393	0.617067632553
1	890	396	0.119893018401
1	893	397	1.749836061508
1	899	399	0.757393740593
1	908	404	0.417311217074
1	914	406	0.107625682948
1	923	410	0.09983284765
1	930	413	0.095845008758
1	935	414	0.400197646789
1	944	419	0.978809597342
1	950	421	0.06939404962
1	959	426	0.842252834654
1	965	428	0.001871669755
1	974	431	0.777112103266
1	977	432	1.501087618963
1	982	433	0.437761012159
1	997	444	0.661811276653
1	1005	448	0.899611340913
1	1014	453	0.740701942202
1	1020	455	0.699799480961
1	1034	463	0.598493134618
1	1037	464	1.25117218388
1	1047	470	0.279361152683
1	1060	479	0.637573781931
1	1066	481	0.901469107109
1	1072	483	0.506161905488
1	1077	484	0.348157991728
1	1090	493	0.2433851966
1	1104	503	0.59289235432
1	1111	505	0.124458086451
1	1118	506	0.723681907877
1	1123	507	0.9161606669
1	1126	508	2.716617497898
1	1135	513	0.201473799433
1	1144	518	0.942474042785
1	1150	520	0.355727383499
1	1161	527	0.513314359604
1	1167	529	0.35825425272
1	1172	530	0.439137856843
1	1179	533	0.886087401052
1	1184	534	0.419557354101
1	1193	539	0.868057651011
1	1202	542	0.688998187093
1	1205	543	1.114199308575
1	1219	553	0.884333796804
1	1224	554	0.545126286864
1	1230	556	0.315242164769
1	1235	557	0.910537960129
1	1241	559	0.608338235612
1	1259	573	0.087098935592
1	1266	576	0.719168089813
1	1274	580	0.495613718052
1	1283	582	0.958466271577
1	1286	583	1.489188319837
1	1299	592	0.591757317958
1	1304	593	0.535181290254
1	1311	594	0.599021087909
1	1314	595	1.128405386265
1	1319	596	0.375641643005
1	1324	597	0.995135472547
1	1334	603	0.423259078861
1	1350	611	0.675342754069
1	1353	612	1.485447590655
1	1356	613	2.26952913821
1	1361	614	0.621640380947
1	1368	617	0.76675996702
1	1387	632	0.280424708905
1	1392	633	0.24836020682
1	1401	638	0.722790752595
1	1411	644	0.221030229488
1	1416	645	0.821376578668
1	1426	649	0.73389771961
1	1433	650	1.953510587973
1	1438	651	1.860671883742
1	1441	652	2.009172209488
1	1444	653	2.598860541816
1	1450	655	0.957765051723
1	1457	658	0.829761744704
1	1464	659	0.70806809819
1	1467	660	1.612995980245
1	1473	662	0.414497554388
1	1481	666	0.603764407754
1	1488	667	0.894691072033
1	1491	668	1.502797644605
1	1497	670	0.054454282781
1	1504	673	0.537313522769
1	1515	680	0.662309410417
1	1522	683	0.573487158356
1	1529	685	0.535287886544
1	1538	690	0.289795388979
1	1543	691	0.757664241881
1	1548	692	0.929322845186
1	1554	694	0.101823258055
1	1561	697	0.213545233025
1	1570	702	0.741577952112
1	1580	708	0.418126291736
1	1589	713	0.99068766818
1	1598	718	0.891803811779
1	1605	719	0.587317558511
1	1608	720	1.787102321233
1	1621	729	0.841219945356
1	1637	741	0.870214590821
1	1642	742	0.567236695146
1	1647	743	0.486127000636
1	1654	746	0.504417220579
1	1665	753	0.823350825364
1	1671	755	0.328112548649
1	1684	762	0.197105856511
1	1687	763	1.017364462602
1	1698	770	0.219198162199
1	1714	780	0.723347122031
1	1719	781	0.498603730545
1	1722	782	2.13101285217
1	1734	790	0.521968417387
1	1740	792	0.769370973514
1	1750	796	0.716276800773
1	1753	797	1.062735930774
1	1765	803	0.126352184156
1	1768	804	1.400316111927
1	1777	809	0.18454728172
1	1793	821	0.857394019113
1	1800	824	0.482715929971
1	1809	827	0.302816924534
1	1812	828	1.249746790898
1	1828	840	0.939160841113
1	1834	841	0.247667814345
1	1840	843	0.860017810721
1	1847	846	0.710451270415
1	1854	847	0.76082678934
1	1857	848	1.954111532501
1	1869	856	0.563773145544
1	1875	858	0.815912531789
1	1887	864	0.997518195684
1	1890	865	1.606046612454
1	1895	866	0.278864766364
1	1906	871	0.804997423672
1	1909	872	1.440032960294
1	1914	873	0.028535005794
1	1920	875	0.729234961331
1	1926	877	0.776466756711
1	1933	880	0.16730740763
1	1939	882	0.80872254243
1	1947	886	0.007025887605
1	1958	893	0.63776494745
1	1965	896	0.372318374942
1	1971	898	0.695812272111
1	1976	899	0.431724010295
1	1983	900	0.727331281055
1	1986	901	1.503160882515
1	1991	902	0.769491638602
1	1996	903	0.804700016417
1	2003	906	0.276396538937
1	2011	910	0.872542570387
1	2018	911	0.941525760369
1	2021	912	1.250616709536
1	2030	917	0.45661373618
1	2038	921	0.751372634646
1	2043	922	0.064846426614
1	2052	927	0.620131910398
1	2059	930	0.244818565203
1	2066	933	0.858627124836
1	2074	935	0.193172366653
1	2077	936	1.067323327452
1	2085	938	0.214999787758
1	2088	939	1.116841136513
1	2093	940	0.148123367736
1	2099	942	0.423210539719
1	2106	945	0.812231071496
1	2115	950	0.55311779766
1	2120	951	0.720599624385
1	2139	966	0.16504706155
1	2155	978	0.032220472448
1	2164	983	0.406986723539
1	2170	985	0.273611322237
1	2180	987	0.311397054674
1	2183	988	1.154998243109
1	2186	989	2.479934463767
1	2192	990	0.031935806307
1	2197	991	0.581253255733
1	2206	996	0.537614804609
2	263	113	0.78001123377
2	268	114	0.754070504066
2	275	117	0.699207260033
2	317	143	0.363169209295
2	340	158	0.484859249607
2	365	171	0.982484165147
2	374	176	0.937330156652
2	380	178	0.394667086003
2	407	193	0.0365175426
2	419	197	0.910977996499
2	438	204	0.635067501086
2	444	206	0.373755056307
2	471	217	0.555327507704
2	554	247	0.49258002752
2	574	255	0.44368434116
2	580	257	0.623727631499
2	604	269	0.549256879767
2	621	278	0.311877456219
2	628	281	0.943702263594
2	634	283	0.831565502935
2	639	284	0.576836635514
2	669	302	0.150499907186
2	729	325	0.716431504304
2	753	333	0.775557846761
2	801	353	0.456963542397
2	807	355	0.872520209531
2	813	357	0.9035099248
2	850	378	0.516907079899
2	875	391	0.832487143878
2	923	410	0.09983284765
2	930	413	0.095845008758
2	997	444	0.661811276653
2	1034	463	0.598493134618
2	1066	481	0.901469107109
2	1193	539	0.868057651011
2	1235	557	0.910537960129
2	1259	573	0.087098935592
2	1283	582	0.958466271577
2	1324	597	0.995135472547
2	1334	603	0.423259078861
2	1350	611	0.675342754069
2	1353	612	1.485447590655
2	1361	614	0.621640380947
2	1368	617	0.76675996702
2	1392	633	0.24836020682
2	1401	638	0.722790752595
2	1416	645	0.821376578668
2	1426	649	0.73389771961
2	1488	667	0.894691072033
2	1497	670	0.054454282781
2	1504	673	0.537313522769
2	1515	680	0.662309410417
2	1561	697	0.213545233025
2	1647	743	0.486127000636
2	1654	746	0.504417220579
2	1698	770	0.219198162199
2	1719	781	0.498603730545
2	1793	821	0.857394019113
2	1800	824	0.482715929971
2	1847	846	0.710451270415
2	1854	847	0.76082678934
2	1869	856	0.563773145544
2	1895	866	0.278864766364
2	1914	873	0.028535005794
2	1920	875	0.729234961331
2	1933	880	0.16730740763
2	1939	882	0.80872254243
2	1983	900	0.727331281055
2	1991	902	0.769491638602
2	2011	910	0.872542570387
2	2018	911	0.941525760369
2	2021	912	1.250616709536
2	2052	927	0.620131910398
2	2066	933	0.858627124836
2	2085	938	0.214999787758
2	2093	940	0.148123367736
2	2155	978	0.032220472448
2	2192	990	0.031935806307
3	300	134	0.934866259529
3	308	138	0.837741449418
3	329	151	0.87521616132
3	393	183	0.27237424849
3	431	201	0.651486108639
3	453	211	0.261384502864
3	466	216	0.74737481517
3	483	220	0.582068518154
3	491	224	0.299151521835
3	502	229	0.369372008957
3	515	232	0.278603569856
3	531	240	0.364833194186
3	538	243	0.089676107378
3	549	246	0.394610955591
3	590	263	0.960343228444
3	596	265	0.011741812753
3	611	272	0.96086962841
3	644	285	0.831951226119
3	678	307	0.63391938159
3	690	311	0.847912848029
3	711	319	0.968578182184
3	718	320	0.891151469893
3	734	326	0.313546503674
3	763	339	0.982707962511
3	775	343	0.256105074415
3	785	345	0.081875889662
3	794	350	0.348985210396
3	835	371	0.986996452909
3	844	376	0.086969680911
3	867	387	0.278663203829
3	881	393	0.617067632553
3	890	396	0.119893018401
3	899	399	0.757393740593
3	950	421	0.06939404962
3	965	428	0.001871669755
3	974	431	0.777112103266
3	977	432	1.501087618963
3	982	433	0.437761012159
3	1014	453	0.740701942202
3	1020	455	0.699799480961
3	1037	464	1.25117218388
3	1118	506	0.723681907877
3	1123	507	0.9161606669
3	1135	513	0.201473799433
3	1161	527	0.513314359604
3	1184	534	0.419557354101
3	1202	542	0.688998187093
3	1219	553	0.884333796804
3	1224	554	0.545126286864
3	1241	559	0.608338235612
3	1266	576	0.719168089813
3	1286	583	1.489188319837
3	1299	592	0.591757317958
3	1311	594	0.599021087909
3	1356	613	2.26952913821
3	1387	632	0.280424708905
3	1433	650	1.953510587973
3	1457	658	0.829761744704
3	1464	659	0.70806809819
3	1467	660	1.612995980245
3	1473	662	0.414497554388
3	1491	668	1.502797644605
3	1529	685	0.535287886544
3	1543	691	0.757664241881
3	1548	692	0.929322845186
3	1570	702	0.741577952112
3	1580	708	0.418126291736
3	1605	719	0.587317558511
3	1621	729	0.841219945356
3	1637	741	0.870214590821
3	1642	742	0.567236695146
3	1665	753	0.823350825364
3	1671	755	0.328112548649
3	1684	762	0.197105856511
3	1714	780	0.723347122031
3	1734	790	0.521968417387
3	1740	792	0.769370973514
3	1750	796	0.716276800773
3	1765	803	0.126352184156
3	1777	809	0.18454728172
3	1809	827	0.302816924534
3	1812	828	1.249746790898
3	1834	841	0.247667814345
3	1840	843	0.860017810721
3	1857	848	1.954111532501
3	1875	858	0.815912531789
3	1887	864	0.997518195684
3	1890	865	1.606046612454
3	1906	871	0.804997423672
3	1926	877	0.776466756711
3	1947	886	0.007025887605
3	1965	896	0.372318374942
3	1971	898	0.695812272111
3	1976	899	0.431724010295
3	1986	901	1.503160882515
3	2003	906	0.276396538937
3	2030	917	0.45661373618
3	2043	922	0.064846426614
3	2059	930	0.244818565203
3	2074	935	0.193172366653
3	2088	939	1.116841136513
3	2115	950	0.55311779766
3	2164	983	0.406986723539
3	2170	985	0.273611322237
3	2180	987	0.311397054674
3	2183	988	1.154998243109
3	2206	996	0.537614804609
4	477	218	10
4	704	316	10
4	915	406	10
4	1105	503	10
4	1275	580	10
4	1523	683	10
4	1829	840	10
4	2187	989	10
5	477	218	16
5	704	316	16
5	915	406	16
5	1105	503	16
5	1275	580	16
5	1523	683	16
5	1829	840	16
5	2187	989	16
6	477	218	-7
6	704	316	-7
6	915	406	-7
6	1105	503	-7
6	1275	580	-7
6	1523	683	-7
6	1829	840	-7
6	2187	989	-7
7	477	218	1
7	704	316	1
7	915	406	1
7	1105	503	1
7	1275	580	1
7	1523	683	1
7	1829	840	1
7	2187	989	1

