version 2
run Sched1-0-20240314-19:56:07-7876
attr configname Sched1
attr datetime 20240314-19:56:07
attr experiment Sched1
attr inifile omnetpp.ini
attr iterationvars ""
attr iterationvarsf ""
attr measurement ""
attr network Network
attr processid 7876
attr repetition 0
attr replication #0
attr resultdir results
attr runnumber 0
attr seedset 0
param *.nrHP 2
param *.nrMP 2
param *.nrLP 2
param Network.sources[*].sendIaTime "20.2 ms"

vector 0 Network.sink lifetime:vector ETV
attr interpolationmode none
attr title "lifetime of arrived jobs, vector"
attr unit s
vector 1 Network.flc "delay vector" ETV
vector 2 Network.flc "result nescalat" ETV
vector 3 Network.flc "res scalat" ETV
vector 4 Network.flc "weight vector" ETV
0	20	1	1
0	25	2	2
0	30	3	3
0	35	4	4
0	40	5	5
0	45	6	6
0	82	17	0.923335007771
0	94	19	0.849080152624
0	99	20	1.35089274429
0	121	26	0.630198687443
0	137	30	0.21971331355
0	147	32	0.021871980136
0	169	38	0.435994916092
0	179	40	0.578784215134
0	189	42	0.222283072959
0	205	46	0.894668874297
0	214	47	0.715298558617
0	219	48	1.444969604556
0	229	50	0.810507139056
0	236	51	0.24889544014
0	246	53	0.014175559552
0	262	57	0.894006257729
0	272	59	0.041744619097
0	291	64	0.130079205473
0	328	75	0.837727530178
0	341	78	0.921651347607
0	366	85	0.322473983567
0	376	87	0.307089747825
0	383	88	0.844436765486
0	390	89	0.355992585091
0	397	90	0.115340011165
0	409	92	0.273887283454
0	417	93	0.861290397793
0	422	94	2.881183901593
0	435	97	0.04211706099
0	454	102	0.584478025238
0	491	113	0.78001123377
0	498	114	0.754070504066
0	511	117	0.699207260033
0	536	124	0.778030609471
0	570	134	0.934866259529
0	586	138	0.837741449418
0	605	143	0.363169209295
0	633	151	0.87521616132
0	658	158	0.484859249607
0	683	165	0.552007848054
0	690	166	0.951045465984
0	709	171	0.982484165147
1	410	92	2
2	410	92	1
3	410	92	-15
4	410	92	1

