version 2
run Sched1-0-20240315-19:26:25-26656
attr configname Sched1
attr datetime 20240315-19:26:25
attr experiment Sched1
attr inifile omnetpp.ini
attr iterationvars ""
attr iterationvarsf ""
attr measurement ""
attr network Network
attr processid 26656
attr repetition 0
attr replication #0
attr resultdir results
attr runnumber 0
attr seedset 0
param *.nrHP 2
param *.nrMP 2
param *.nrLP 2
param Network.sources[*].sendIaTime "20.2 ms"

vector 0 Network.sink lifetime:vector ETV
attr interpolationmode none
attr title "lifetime of arrived jobs, vector"
attr unit s
vector 1 Network.flc "delay vector" ETV
vector 2 Network.flc "result nescalat" ETV
vector 3 Network.flc "res scalat" ETV
vector 4 Network.flc "weight vector" ETV
0	16	1	1
0	19	2	2
0	22	3	3
0	25	4	4
0	28	5	5
0	31	6	6
0	46	17	0.923335007771
0	54	19	0.849080152624
0	57	20	1.35089274429
0	67	26	0.630198687443
0	75	30	0.21971331355
0	81	32	0.021871980136
0	91	38	0.435994916092
0	97	40	0.578784215134
0	103	42	0.222283072959
0	111	46	0.894668874297
0	118	47	0.715298558617
0	121	48	1.444969604556
0	127	50	0.810507139056
0	132	51	0.24889544014
0	138	53	0.014175559552
0	146	57	0.894006257729
0	152	59	0.041744619097
0	161	64	0.130079205473
0	176	75	0.837727530178
0	183	78	0.921651347607
0	194	85	0.322473983567
0	200	87	0.307089747825
0	205	88	0.844436765486
0	210	89	0.355992585091
0	215	90	0.115340011165
0	223	92	0.273887283454
0	229	93	0.861290397793
0	232	94	2.881183901593
0	239	97	0.04211706099
0	248	102	0.584478025238
0	263	113	0.78001123377
0	268	114	0.754070504066
0	275	117	0.699207260033
0	286	124	0.778030609471
1	224	92	1
2	224	92	1
3	224	92	-15
4	224	92	1

